Clear

New object=circuit.test_validation
Edit "Vsource.source" bus1=1 pu=1.05 R0=0 X0=0.00000001 phases=3 basekv=4.16 R1=0 X1=0.00000001

Redirect MyLineCodes.txt
Redirect Line.txt

